! RI BP86 def2-SVP def2/J D3BJ TIGHTSCF  Opt Grid3 FinalGrid5
%maxcore 3000
%geom
optimizehydrogens true
end


*xyz 0 1
C	-2.478178	-1.740674	0.000194
C	-2.057388	-0.422334	0.002314
S	-1.104518	-2.747414	0.003144
C	0.040372	-1.448654	0.001874
C	-0.627868	-0.219044	0.002284
H	-2.759508	0.401726	0.002364
C	0.002722	1.165066	0.001444
C	-0.976988	2.347156	0.002254
H	0.636162	1.255276	-0.889106
H	0.637032	1.256276	0.891224
C	-0.252208	3.697106	-0.007436
H	-1.620168	2.294466	0.889644
H	-1.629448	2.288736	-0.877956
C	-1.254618	4.855186	0.004094
H	0.383132	3.768036	-0.898446
H	0.404922	3.770506	0.867424
C	-0.554928	6.213886	-0.025036
H	-1.882008	4.786486	0.901314
H	-1.922168	4.770586	-0.862246
C	-1.559998	7.355986	-0.005036
H	0.063372	6.295516	-0.926436
H	0.113852	6.308656	0.838174
H	-2.229328	7.305676	-0.869946
H	-1.041508	8.319516	-0.033066
H	-2.170528	7.325696	0.903234
H	-3.499162	-2.092783	-0.003060
H	1.094706	-1.682705	0.001344
*