! RI BP86 def2-SVP def2/J D3BJ TIGHTSCF  Opt Grid3 FinalGrid5
%maxcore 3000
%geom
optimizehydrogens true
end


*xyz 0 1
C	-4.586539	-0.774897	0.096402
C	-4.006980	0.484607	0.048471
S	-3.348556	-2.054004	0.128641
C	-2.579809	0.463909	0.042924
H	-4.582554	1.413677	0.016822
C	-2.037329	-0.868177	0.098614
C	-0.652029	-1.092580	0.076930
C	-1.738344	1.610600	-0.032407
C	-0.350735	1.386273	-0.058420
C	0.190971	0.052532	0.000209
O	-2.394230	2.804208	-0.051826
O	-0.003342	-2.294291	0.095402
C	-0.605962	-3.403287	0.751465
H	0.182689	-4.173648	0.844468
H	-1.446787	-3.833006	0.163996
H	-0.971330	-3.128750	1.764411
C	-1.744511	3.970880	-0.541476
H	-2.529787	4.744462	-0.631810
H	-1.288558	3.796597	-1.539393
H	-0.966715	4.341458	0.161111
C	1.617726	0.035340	-0.007773
S	0.962310	2.573873	-0.101228
C	2.191452	1.298329	-0.063607
H	2.196997	-0.896257	0.026781
H	-5.629384	-1.055436	0.109538
H	3.237129	1.567944	-0.079980
*