82
	Energy:     488.1050520
C         -5.09124        0.89125        0.12616
C         -4.51168        2.15076        0.07823
S         -3.85326       -0.38786        0.15840
C         -3.08451        2.13006        0.07268
H         -5.08726        3.07983        0.04658
C         -2.54203        0.79797        0.12837
C         -1.15673        0.57357        0.10669
C         -2.24305        3.27675       -0.00265
C         -0.85544        3.05242       -0.02866
C         -0.31373        1.71868        0.02997
O         -2.89893        4.47036       -0.02207
O         -0.50805       -0.62814        0.12516
C         -1.11067       -1.73714        0.78122
H         -0.32202       -2.50750        0.87423
H         -1.95149       -2.16686        0.19375
H         -1.47604       -1.46260        1.79417
C         -2.24922        5.63703       -0.51172
H         -3.03449        6.41061       -0.60205
H         -1.79326        5.46275       -1.50964
H         -1.47142        6.00761        0.19087
C          1.11302        1.70149        0.02199
S          0.45760        4.24002       -0.07147
C          1.68675        2.96448       -0.03385
H          1.69229        0.76989        0.05654
C          3.07632        3.32276       -0.05561
S          4.33013        2.09103       -0.00991
C          5.65471        3.24751       -0.06404
C          3.68415        4.58201       -0.11229
C          5.12553        4.56109       -0.11575
C          3.25869        5.93870       -0.17064
C          4.32423        6.85949       -0.21451
S          5.82079        6.07342       -0.18342
C          4.20106        8.32797       -0.28193
O          3.09736        8.85467       -0.30310
O          5.32916        9.08285       -0.32228
C         -6.48230        0.51704        0.14368
C         -7.67034        1.28701        0.11854
C         -8.86364        0.46654        0.15963
C         -8.61531       -0.89284        0.21480
S         -6.90638       -1.18775        0.21801
H         -9.32232       -1.72873        0.25286
S        -10.35005        1.40426        0.12823
C         -9.40748        2.90140        0.05867
C         -8.03883        2.67385        0.06051
F         -7.14413        3.66746        0.01089
C        -10.18494        4.14879        0.00954
O        -11.40792        4.17914        0.01562
O         -9.39701        5.25154       -0.04256
C        -10.10449        6.49850       -0.09059
H         -9.32938        7.28403       -0.13154
H        -10.73988        6.62732        0.80887
H        -10.75601        6.54919       -0.98628
C          7.00514        2.75323       -0.04715
S          7.27491        0.99003        0.02792
C          8.20700        3.44987       -0.08059
C          9.35995        2.60558       -0.05041
H          8.27413        4.54064       -0.12772
C          9.02016        1.20887       -0.00684
C         10.71887        3.01201       -0.03643
C          9.99470        0.20200        0.05443
C         11.69455        2.00350        0.02745
C         11.35397        0.60896        0.06931
S         13.44101        2.22592        0.00587
C         12.52489       -0.22868        0.10355
C         13.69323        0.49229        0.07934
H         12.47555       -1.32402        0.14640
H         14.72077        0.10745        0.09553
O         11.01286        4.34786       -0.10941
O          9.70794       -1.13658        0.12947
C         11.59643        4.92182        1.06422
H         11.77082        5.99030        0.83896
H         12.56577        4.44378        1.32726
H         10.90764        4.83549        1.93324
C          9.04286       -1.69952       -1.00384
H          8.91413       -2.77692       -0.79002
H          9.65207       -1.57564       -1.92622
H          8.04194       -1.24521       -1.17659
F          1.98796        6.39038       -0.18883
C          5.33789       10.45921       -0.39175
H          6.38890       10.81435       -0.41182
H          4.83141       10.89081        0.49769
H          4.82815       10.79885       -1.31848
